*SPEF "ieee 1481-1999"
*DESIGN "Top"
*DATE "12:25:24 Thursday January 29, 2026"
*VENDOR "The OpenROAD Project"
*PROGRAM "OpenROAD"
*VERSION "edf00dff99f6c40d67a30c0e22a8191c5d2ed9d6"
*DESIGN_FLOW "NAME_SCOPE LOCAL" "PIN_CAP NONE"
*DIVIDER /
*DELIMITER :
*BUS_DELIMITER []
*T_UNIT 1 NS
*C_UNIT 1 PF
*R_UNIT 1 OHM
*L_UNIT 1 HENRY

*NAME_MAP
*1 A[0]
*2 A[1]
*3 A[2]
*4 A[3]
*5 A[4]
*6 A[5]
*7 A[6]
*8 A[7]
*9 B[0]
*10 B[1]
*11 B[2]
*12 B[3]
*13 B[4]
*14 B[5]
*15 B[6]
*16 B[7]
*17 Output[0]
*18 Output[10]
*19 Output[11]
*20 Output[12]
*21 Output[13]
*22 Output[14]
*23 Output[15]
*24 Output[1]
*25 Output[2]
*26 Output[3]
*27 Output[4]
*28 Output[5]
*29 Output[6]
*30 Output[7]
*31 Output[8]
*32 Output[9]
*35 clk
*36 reset
*37 A_ff\[0\]
*38 A_ff\[1\]
*39 A_ff\[2\]
*40 A_ff\[3\]
*41 A_ff\[4\]
*42 A_ff\[5\]
*43 A_ff\[6\]
*44 A_ff\[7\]
*45 Adder\.cla_16_bit\.Sum\[0\]
*46 Adder\.cla_16_bit\.Sum\[10\]
*47 Adder\.cla_16_bit\.Sum\[11\]
*48 Adder\.cla_16_bit\.Sum\[12\]
*49 Adder\.cla_16_bit\.Sum\[13\]
*50 Adder\.cla_16_bit\.Sum\[14\]
*51 Adder\.cla_16_bit\.Sum\[15\]
*52 Adder\.cla_16_bit\.Sum\[1\]
*53 Adder\.cla_16_bit\.Sum\[2\]
*54 Adder\.cla_16_bit\.Sum\[3\]
*55 Adder\.cla_16_bit\.Sum\[4\]
*56 Adder\.cla_16_bit\.Sum\[5\]
*57 Adder\.cla_16_bit\.Sum\[6\]
*58 Adder\.cla_16_bit\.Sum\[7\]
*59 Adder\.cla_16_bit\.Sum\[8\]
*60 Adder\.cla_16_bit\.Sum\[9\]
*61 B_ff\[0\]
*62 B_ff\[1\]
*63 B_ff\[2\]
*64 B_ff\[3\]
*65 B_ff\[4\]
*66 B_ff\[5\]
*67 B_ff\[6\]
*68 B_ff\[7\]
*69 _000_
*70 _001_
*71 _002_
*72 _003_
*73 _004_
*74 _005_
*75 _006_
*76 _007_
*77 _008_
*78 _009_
*79 _010_
*80 _011_
*81 _012_
*82 _013_
*83 _014_
*84 _015_
*85 _016_
*86 _017_
*87 _018_
*88 _019_
*89 _020_
*90 _021_
*91 _022_
*92 _023_
*93 _024_
*94 _025_
*95 _026_
*96 _027_
*97 _028_
*98 _029_
*99 _030_
*100 _031_
*101 _032_
*102 _033_
*103 _034_
*104 _035_
*105 _036_
*106 _037_
*107 _038_
*108 _039_
*109 _040_
*110 _041_
*111 _042_
*112 _043_
*113 _044_
*114 _045_
*115 _046_
*116 _047_
*117 _048_
*118 _049_
*119 _050_
*120 _051_
*121 _052_
*122 _053_
*123 _054_
*124 _055_
*125 _056_
*126 _057_
*127 _058_
*128 _059_
*129 _060_
*130 _061_
*131 _062_
*132 _063_
*133 _064_
*134 _065_
*135 _066_
*136 _067_
*137 _068_
*138 _069_
*139 _070_
*140 _071_
*141 _072_
*142 _073_
*143 _074_
*144 _075_
*145 _076_
*146 _077_
*147 _078_
*148 _079_
*149 _080_
*150 _081_
*151 _082_
*152 _083_
*153 _084_
*154 _085_
*155 _086_
*156 _087_
*157 _088_
*158 _089_
*159 _090_
*160 _091_
*161 _092_
*162 _093_
*163 _094_
*164 _095_
*165 _096_
*166 _097_
*167 _098_
*168 _099_
*169 _100_
*170 _101_
*171 _102_
*172 _103_
*173 _104_
*174 _105_
*175 _106_
*176 _107_
*177 _108_
*178 _109_
*179 _110_
*180 _111_
*181 _112_
*182 _113_
*183 _114_
*184 _115_
*185 _116_
*186 _117_
*187 _118_
*188 _119_
*189 _120_
*190 _121_
*191 _122_
*192 _123_
*193 _124_
*194 _125_
*195 _126_
*196 _127_
*197 _128_
*198 _129_
*199 _130_
*200 _131_
*201 _132_
*202 _133_
*203 _134_
*204 _135_
*205 _136_
*206 _137_
*207 _138_
*208 _139_
*209 _140_
*210 _141_
*211 _142_
*212 _143_
*213 _144_
*214 _145_
*215 _146_
*216 _147_
*217 _148_
*218 _149_
*219 _150_
*220 _151_
*221 _152_
*222 _153_
*223 _154_
*224 _155_
*225 _156_
*226 _157_
*227 _158_
*228 _159_
*229 _160_
*230 _161_
*231 _162_
*232 _163_
*233 _164_
*234 _165_
*235 _166_
*236 _167_
*237 _168_
*238 _169_
*239 _170_
*240 _171_
*241 _172_
*242 _173_
*243 _174_
*244 _175_
*245 _176_
*246 _177_
*247 _178_
*248 _179_
*249 _180_
*250 _181_
*251 _182_
*252 _183_
*253 _184_
*254 _185_
*255 _186_
*256 _187_
*257 _188_
*258 _189_
*259 _190_
*260 _191_
*261 _192_
*262 _193_
*263 _194_
*264 _195_
*265 _196_
*266 _197_
*267 _198_
*268 _199_
*269 _200_
*270 _201_
*271 _202_
*272 _203_
*273 _204_
*274 _205_
*275 _206_
*276 _207_
*277 _208_
*278 _209_
*279 _210_
*280 _211_
*281 _212_
*282 _213_
*283 _214_
*284 _215_
*285 _216_
*286 _217_
*287 _218_
*288 _219_
*289 _220_
*290 _221_
*291 _222_
*292 _223_
*293 _224_
*294 _225_
*295 _226_
*296 _227_
*297 _228_
*298 _229_
*299 _230_
*300 _231_
*301 _232_
*302 _233_
*303 _234_
*304 _235_
*305 _236_
*306 _237_
*307 _238_
*308 _239_
*309 _240_
*310 _241_
*311 _242_
*312 _243_
*313 _244_
*314 _245_
*315 _246_
*316 _247_
*317 _248_
*318 _249_
*319 _250_
*320 _251_
*321 _252_
*322 _253_
*323 _254_
*324 _255_
*325 _256_
*326 _257_
*327 _258_
*328 _259_
*329 _260_
*330 _261_
*331 _262_
*332 _263_
*333 _264_
*334 _265_
*335 _266_
*336 _267_
*337 _268_
*338 _269_
*339 _270_
*340 _271_
*341 _272_
*342 _273_
*343 _274_
*344 _275_
*345 _276_
*346 _277_
*347 _278_
*348 _279_
*349 _280_
*350 _281_
*351 _282_
*352 _283_
*353 _284_
*354 _285_
*355 _286_
*356 _287_
*357 _288_
*358 _289_
*359 _290_
*360 _291_
*361 _292_
*362 _293_
*363 _294_
*364 _295_
*365 _296_
*366 _297_
*367 _298_
*368 _299_
*369 _300_
*370 _301_
*371 _302_
*372 _303_
*373 _304_
*374 _305_
*375 _306_
*376 _307_
*377 _308_
*378 _309_
*379 _310_
*380 _311_
*381 _312_
*382 clknet_0_clk
*383 clknet_2_0__leaf_clk
*384 clknet_2_1__leaf_clk
*385 clknet_2_2__leaf_clk
*386 clknet_2_3__leaf_clk
*387 net1
*388 net10
*389 net11
*390 net12
*391 net13
*392 net14
*393 net15
*394 net16
*395 net17
*396 net18
*397 net19
*398 net2
*399 net20
*400 net21
*401 net22
*402 net23
*403 net24
*404 net25
*405 net26
*406 net27
*407 net28
*408 net29
*409 net3
*410 net30
*411 net31
*412 net32
*413 net33
*414 net4
*415 net5
*416 net6
*417 net7
*418 net8
*419 net9
*420 FILLER_0_110
*421 FILLER_0_113
*422 FILLER_0_125
*423 FILLER_0_129
*424 FILLER_0_133
*425 FILLER_0_139
*426 FILLER_0_141
*427 FILLER_0_153
*428 FILLER_0_165
*429 FILLER_0_169
*430 FILLER_0_177
*431 FILLER_0_23
*432 FILLER_0_27
*433 FILLER_0_32
*434 FILLER_0_44
*435 FILLER_0_48
*436 FILLER_0_57
*437 FILLER_0_69
*438 FILLER_0_81
*439 FILLER_0_85
*440 FILLER_10_102
*441 FILLER_10_131
*442 FILLER_10_139
*443 FILLER_10_141
*444 FILLER_10_150
*445 FILLER_10_158
*446 FILLER_10_176
*447 FILLER_10_23
*448 FILLER_10_27
*449 FILLER_10_29
*450 FILLER_10_41
*451 FILLER_10_49
*452 FILLER_10_57
*453 FILLER_10_78
*454 FILLER_10_85
*455 FILLER_11_10
*456 FILLER_11_106
*457 FILLER_11_125
*458 FILLER_11_137
*459 FILLER_11_14
*460 FILLER_11_149
*461 FILLER_11_161
*462 FILLER_11_167
*463 FILLER_11_169
*464 FILLER_11_177
*465 FILLER_11_18
*466 FILLER_11_26
*467 FILLER_11_38
*468 FILLER_11_53
*469 FILLER_11_57
*470 FILLER_11_6
*471 FILLER_11_61
*472 FILLER_11_73
*473 FILLER_11_85
*474 FILLER_11_94
*475 FILLER_12_109
*476 FILLER_12_121
*477 FILLER_12_126
*478 FILLER_12_138
*479 FILLER_12_141
*480 FILLER_12_146
*481 FILLER_12_155
*482 FILLER_12_163
*483 FILLER_12_177
*484 FILLER_12_23
*485 FILLER_12_27
*486 FILLER_12_36
*487 FILLER_12_41
*488 FILLER_12_57
*489 FILLER_12_68
*490 FILLER_12_83
*491 FILLER_12_85
*492 FILLER_12_97
*493 FILLER_13_106
*494 FILLER_13_113
*495 FILLER_13_12
*496 FILLER_13_126
*497 FILLER_13_16
*498 FILLER_13_161
*499 FILLER_13_167
*500 FILLER_13_178
*501 FILLER_13_22
*502 FILLER_13_48
*503 FILLER_13_6
*504 FILLER_13_77
*505 FILLER_14_107
*506 FILLER_14_119
*507 FILLER_14_131
*508 FILLER_14_139
*509 FILLER_14_141
*510 FILLER_14_145
*511 FILLER_14_154
*512 FILLER_14_162
*513 FILLER_14_176
*514 FILLER_14_23
*515 FILLER_14_27
*516 FILLER_14_35
*517 FILLER_14_47
*518 FILLER_14_62
*519 FILLER_14_74
*520 FILLER_14_82
*521 FILLER_14_85
*522 FILLER_14_93
*523 FILLER_15_111
*524 FILLER_15_118
*525 FILLER_15_130
*526 FILLER_15_142
*527 FILLER_15_150
*528 FILLER_15_155
*529 FILLER_15_167
*530 FILLER_15_173
*531 FILLER_15_18
*532 FILLER_15_30
*533 FILLER_15_42
*534 FILLER_15_54
*535 FILLER_15_6
*536 FILLER_15_80
*537 FILLER_15_88
*538 FILLER_16_106
*539 FILLER_16_118
*540 FILLER_16_130
*541 FILLER_16_141
*542 FILLER_16_147
*543 FILLER_16_161
*544 FILLER_16_168
*545 FILLER_16_176
*546 FILLER_16_26
*547 FILLER_16_36
*548 FILLER_16_49
*549 FILLER_16_57
*550 FILLER_16_67
*551 FILLER_16_75
*552 FILLER_16_92
*553 FILLER_16_98
*554 FILLER_17_102
*555 FILLER_17_119
*556 FILLER_17_133
*557 FILLER_17_15
*558 FILLER_17_164
*559 FILLER_17_177
*560 FILLER_17_23
*561 FILLER_17_3
*562 FILLER_17_41
*563 FILLER_17_53
*564 FILLER_17_57
*565 FILLER_17_66
*566 FILLER_17_74
*567 FILLER_17_89
*568 FILLER_17_97
*569 FILLER_18_10
*570 FILLER_18_109
*571 FILLER_18_121
*572 FILLER_18_133
*573 FILLER_18_139
*574 FILLER_18_14
*575 FILLER_18_141
*576 FILLER_18_153
*577 FILLER_18_165
*578 FILLER_18_174
*579 FILLER_18_178
*580 FILLER_18_29
*581 FILLER_18_40
*582 FILLER_18_6
*583 FILLER_18_71
*584 FILLER_18_83
*585 FILLER_18_85
*586 FILLER_18_97
*587 FILLER_19_111
*588 FILLER_19_113
*589 FILLER_19_117
*590 FILLER_19_144
*591 FILLER_19_158
*592 FILLER_19_162
*593 FILLER_19_177
*594 FILLER_19_23
*595 FILLER_19_28
*596 FILLER_19_36
*597 FILLER_19_50
*598 FILLER_19_81
*599 FILLER_1_10
*600 FILLER_1_111
*601 FILLER_1_119
*602 FILLER_1_159
*603 FILLER_1_167
*604 FILLER_1_169
*605 FILLER_1_177
*606 FILLER_1_54
*607 FILLER_1_57
*608 FILLER_1_6
*609 FILLER_1_71
*610 FILLER_1_90
*611 FILLER_20_138
*612 FILLER_20_15
*613 FILLER_20_163
*614 FILLER_20_173
*615 FILLER_20_26
*616 FILLER_20_29
*617 FILLER_20_50
*618 FILLER_20_6
*619 FILLER_20_60
*620 FILLER_20_82
*621 FILLER_21_106
*622 FILLER_21_111
*623 FILLER_21_113
*624 FILLER_21_136
*625 FILLER_21_161
*626 FILLER_21_167
*627 FILLER_21_176
*628 FILLER_21_23
*629 FILLER_21_35
*630 FILLER_21_47
*631 FILLER_21_55
*632 FILLER_21_64
*633 FILLER_21_76
*634 FILLER_21_84
*635 FILLER_21_91
*636 FILLER_22_113
*637 FILLER_22_12
*638 FILLER_22_125
*639 FILLER_22_137
*640 FILLER_22_141
*641 FILLER_22_153
*642 FILLER_22_157
*643 FILLER_22_16
*644 FILLER_22_29
*645 FILLER_22_43
*646 FILLER_22_6
*647 FILLER_22_62
*648 FILLER_22_74
*649 FILLER_22_82
*650 FILLER_22_85
*651 FILLER_22_93
*652 FILLER_22_99
*653 FILLER_23_105
*654 FILLER_23_111
*655 FILLER_23_113
*656 FILLER_23_117
*657 FILLER_23_129
*658 FILLER_23_137
*659 FILLER_23_155
*660 FILLER_23_165
*661 FILLER_23_172
*662 FILLER_23_178
*663 FILLER_23_23
*664 FILLER_23_31
*665 FILLER_23_41
*666 FILLER_23_53
*667 FILLER_23_57
*668 FILLER_23_66
*669 FILLER_23_72
*670 FILLER_23_77
*671 FILLER_23_85
*672 FILLER_23_93
*673 FILLER_24_115
*674 FILLER_24_119
*675 FILLER_24_136
*676 FILLER_24_141
*677 FILLER_24_156
*678 FILLER_24_23
*679 FILLER_24_41
*680 FILLER_24_53
*681 FILLER_24_65
*682 FILLER_24_74
*683 FILLER_24_82
*684 FILLER_24_93
*685 FILLER_25_10
*686 FILLER_25_109
*687 FILLER_25_113
*688 FILLER_25_14
*689 FILLER_25_153
*690 FILLER_25_157
*691 FILLER_25_161
*692 FILLER_25_167
*693 FILLER_25_169
*694 FILLER_25_174
*695 FILLER_25_178
*696 FILLER_25_18
*697 FILLER_25_39
*698 FILLER_25_43
*699 FILLER_25_54
*700 FILLER_25_6
*701 FILLER_25_70
*702 FILLER_25_85
*703 FILLER_25_97
*704 FILLER_26_118
*705 FILLER_26_126
*706 FILLER_26_133
*707 FILLER_26_139
*708 FILLER_26_141
*709 FILLER_26_149
*710 FILLER_26_158
*711 FILLER_26_18
*712 FILLER_26_26
*713 FILLER_26_37
*714 FILLER_26_49
*715 FILLER_26_6
*716 FILLER_26_61
*717 FILLER_26_73
*718 FILLER_26_81
*719 FILLER_26_85
*720 FILLER_26_89
*721 FILLER_27_10
*722 FILLER_27_105
*723 FILLER_27_109
*724 FILLER_27_113
*725 FILLER_27_121
*726 FILLER_27_126
*727 FILLER_27_14
*728 FILLER_27_152
*729 FILLER_27_156
*730 FILLER_27_160
*731 FILLER_27_169
*732 FILLER_27_177
*733 FILLER_27_46
*734 FILLER_27_54
*735 FILLER_27_6
*736 FILLER_27_60
*737 FILLER_27_67
*738 FILLER_27_73
*739 FILLER_27_97
*740 FILLER_28_144
*741 FILLER_28_170
*742 FILLER_28_174
*743 FILLER_28_178
*744 FILLER_28_26
*745 FILLER_28_32
*746 FILLER_28_88
*747 FILLER_29_100
*748 FILLER_29_113
*749 FILLER_29_124
*750 FILLER_29_132
*751 FILLER_29_136
*752 FILLER_29_141
*753 FILLER_29_148
*754 FILLER_29_156
*755 FILLER_29_16
*756 FILLER_29_160
*757 FILLER_29_172
*758 FILLER_29_24
*759 FILLER_29_29
*760 FILLER_29_40
*761 FILLER_29_48
*762 FILLER_29_52
*763 FILLER_29_83
*764 FILLER_29_88
*765 FILLER_29_9
*766 FILLER_29_96
*767 FILLER_2_100
*768 FILLER_2_115
*769 FILLER_2_135
*770 FILLER_2_141
*771 FILLER_2_163
*772 FILLER_2_175
*773 FILLER_2_18
*774 FILLER_2_26
*775 FILLER_2_29
*776 FILLER_2_41
*777 FILLER_2_49
*778 FILLER_2_59
*779 FILLER_2_6
*780 FILLER_2_67
*781 FILLER_2_72
*782 FILLER_2_83
*783 FILLER_2_92
*784 FILLER_3_103
*785 FILLER_3_111
*786 FILLER_3_113
*787 FILLER_3_140
*788 FILLER_3_146
*789 FILLER_3_159
*790 FILLER_3_167
*791 FILLER_3_169
*792 FILLER_3_177
*793 FILLER_3_26
*794 FILLER_3_41
*795 FILLER_3_49
*796 FILLER_3_67
*797 FILLER_3_75
*798 FILLER_3_83
*799 FILLER_3_95
*800 FILLER_4_111
*801 FILLER_4_123
*802 FILLER_4_135
*803 FILLER_4_139
*804 FILLER_4_141
*805 FILLER_4_15
*806 FILLER_4_153
*807 FILLER_4_161
*808 FILLER_4_176
*809 FILLER_4_27
*810 FILLER_4_29
*811 FILLER_4_41
*812 FILLER_4_53
*813 FILLER_4_58
*814 FILLER_4_6
*815 FILLER_4_70
*816 FILLER_4_82
*817 FILLER_4_94
*818 FILLER_5_108
*819 FILLER_5_113
*820 FILLER_5_121
*821 FILLER_5_131
*822 FILLER_5_139
*823 FILLER_5_148
*824 FILLER_5_157
*825 FILLER_5_161
*826 FILLER_5_167
*827 FILLER_5_172
*828 FILLER_5_178
*829 FILLER_5_23
*830 FILLER_5_33
*831 FILLER_5_40
*832 FILLER_5_53
*833 FILLER_5_57
*834 FILLER_5_63
*835 FILLER_5_71
*836 FILLER_5_84
*837 FILLER_6_105
*838 FILLER_6_118
*839 FILLER_6_139
*840 FILLER_6_173
*841 FILLER_6_18
*842 FILLER_6_26
*843 FILLER_6_29
*844 FILLER_6_33
*845 FILLER_6_40
*846 FILLER_6_6
*847 FILLER_6_61
*848 FILLER_6_83
*849 FILLER_6_85
*850 FILLER_7_111
*851 FILLER_7_113
*852 FILLER_7_123
*853 FILLER_7_129
*854 FILLER_7_141
*855 FILLER_7_149
*856 FILLER_7_15
*857 FILLER_7_161
*858 FILLER_7_167
*859 FILLER_7_169
*860 FILLER_7_177
*861 FILLER_7_40
*862 FILLER_7_48
*863 FILLER_7_6
*864 FILLER_7_64
*865 FILLER_7_72
*866 FILLER_7_77
*867 FILLER_7_88
*868 FILLER_7_94
*869 FILLER_7_99
*870 FILLER_8_103
*871 FILLER_8_107
*872 FILLER_8_122
*873 FILLER_8_130
*874 FILLER_8_135
*875 FILLER_8_141
*876 FILLER_8_155
*877 FILLER_8_163
*878 FILLER_8_23
*879 FILLER_8_27
*880 FILLER_8_35
*881 FILLER_8_47
*882 FILLER_8_59
*883 FILLER_8_74
*884 FILLER_8_82
*885 FILLER_8_85
*886 FILLER_8_91
*887 FILLER_9_100
*888 FILLER_9_113
*889 FILLER_9_119
*890 FILLER_9_143
*891 FILLER_9_15
*892 FILLER_9_158
*893 FILLER_9_166
*894 FILLER_9_176
*895 FILLER_9_23
*896 FILLER_9_42
*897 FILLER_9_54
*898 FILLER_9_57
*899 FILLER_9_6
*900 FILLER_9_69
*901 FILLER_9_81
*902 PHY_EDGE_ROW_0_Left_30
*903 PHY_EDGE_ROW_0_Right_0
*904 PHY_EDGE_ROW_10_Left_40
*905 PHY_EDGE_ROW_10_Right_10
*906 PHY_EDGE_ROW_11_Left_41
*907 PHY_EDGE_ROW_11_Right_11
*908 PHY_EDGE_ROW_12_Left_42
*909 PHY_EDGE_ROW_12_Right_12
*910 PHY_EDGE_ROW_13_Left_43
*911 PHY_EDGE_ROW_13_Right_13
*912 PHY_EDGE_ROW_14_Left_44
*913 PHY_EDGE_ROW_14_Right_14
*914 PHY_EDGE_ROW_15_Left_45
*915 PHY_EDGE_ROW_15_Right_15
*916 PHY_EDGE_ROW_16_Left_46
*917 PHY_EDGE_ROW_16_Right_16
*918 PHY_EDGE_ROW_17_Left_47
*919 PHY_EDGE_ROW_17_Right_17
*920 PHY_EDGE_ROW_18_Left_48
*921 PHY_EDGE_ROW_18_Right_18
*922 PHY_EDGE_ROW_19_Left_49
*923 PHY_EDGE_ROW_19_Right_19
*924 PHY_EDGE_ROW_1_Left_31
*925 PHY_EDGE_ROW_1_Right_1
*926 PHY_EDGE_ROW_20_Left_50
*927 PHY_EDGE_ROW_20_Right_20
*928 PHY_EDGE_ROW_21_Left_51
*929 PHY_EDGE_ROW_21_Right_21
*930 PHY_EDGE_ROW_22_Left_52
*931 PHY_EDGE_ROW_22_Right_22
*932 PHY_EDGE_ROW_23_Left_53
*933 PHY_EDGE_ROW_23_Right_23
*934 PHY_EDGE_ROW_24_Left_54
*935 PHY_EDGE_ROW_24_Right_24
*936 PHY_EDGE_ROW_25_Left_55
*937 PHY_EDGE_ROW_25_Right_25
*938 PHY_EDGE_ROW_26_Left_56
*939 PHY_EDGE_ROW_26_Right_26
*940 PHY_EDGE_ROW_27_Left_57
*941 PHY_EDGE_ROW_27_Right_27
*942 PHY_EDGE_ROW_28_Left_58
*943 PHY_EDGE_ROW_28_Right_28
*944 PHY_EDGE_ROW_29_Left_59
*945 PHY_EDGE_ROW_29_Right_29
*946 PHY_EDGE_ROW_2_Left_32
*947 PHY_EDGE_ROW_2_Right_2
*948 PHY_EDGE_ROW_3_Left_33
*949 PHY_EDGE_ROW_3_Right_3
*950 PHY_EDGE_ROW_4_Left_34
*951 PHY_EDGE_ROW_4_Right_4
*952 PHY_EDGE_ROW_5_Left_35
*953 PHY_EDGE_ROW_5_Right_5
*954 PHY_EDGE_ROW_6_Left_36
*955 PHY_EDGE_ROW_6_Right_6
*956 PHY_EDGE_ROW_7_Left_37
*957 PHY_EDGE_ROW_7_Right_7
*958 PHY_EDGE_ROW_8_Left_38
*959 PHY_EDGE_ROW_8_Right_8
*960 PHY_EDGE_ROW_9_Left_39
*961 PHY_EDGE_ROW_9_Right_9
*962 TAP_TAPCELL_ROW_0_60
*963 TAP_TAPCELL_ROW_0_61
*964 TAP_TAPCELL_ROW_0_62
*965 TAP_TAPCELL_ROW_0_63
*966 TAP_TAPCELL_ROW_0_64
*967 TAP_TAPCELL_ROW_0_65
*968 TAP_TAPCELL_ROW_10_93
*969 TAP_TAPCELL_ROW_10_94
*970 TAP_TAPCELL_ROW_10_95
*971 TAP_TAPCELL_ROW_11_96
*972 TAP_TAPCELL_ROW_11_97
*973 TAP_TAPCELL_ROW_11_98
*974 TAP_TAPCELL_ROW_12_100
*975 TAP_TAPCELL_ROW_12_101
*976 TAP_TAPCELL_ROW_12_99
*977 TAP_TAPCELL_ROW_13_102
*978 TAP_TAPCELL_ROW_13_103
*979 TAP_TAPCELL_ROW_13_104
*980 TAP_TAPCELL_ROW_14_105
*981 TAP_TAPCELL_ROW_14_106
*982 TAP_TAPCELL_ROW_14_107
*983 TAP_TAPCELL_ROW_15_108
*984 TAP_TAPCELL_ROW_15_109
*985 TAP_TAPCELL_ROW_15_110
*986 TAP_TAPCELL_ROW_16_111
*987 TAP_TAPCELL_ROW_16_112
*988 TAP_TAPCELL_ROW_16_113
*989 TAP_TAPCELL_ROW_17_114
*990 TAP_TAPCELL_ROW_17_115
*991 TAP_TAPCELL_ROW_17_116
*992 TAP_TAPCELL_ROW_18_117
*993 TAP_TAPCELL_ROW_18_118
*994 TAP_TAPCELL_ROW_18_119
*995 TAP_TAPCELL_ROW_19_120
*996 TAP_TAPCELL_ROW_19_121
*997 TAP_TAPCELL_ROW_19_122
*998 TAP_TAPCELL_ROW_1_66
*999 TAP_TAPCELL_ROW_1_67
*1000 TAP_TAPCELL_ROW_1_68
*1001 TAP_TAPCELL_ROW_20_123
*1002 TAP_TAPCELL_ROW_20_124
*1003 TAP_TAPCELL_ROW_20_125
*1004 TAP_TAPCELL_ROW_21_126
*1005 TAP_TAPCELL_ROW_21_127
*1006 TAP_TAPCELL_ROW_21_128
*1007 TAP_TAPCELL_ROW_22_129
*1008 TAP_TAPCELL_ROW_22_130
*1009 TAP_TAPCELL_ROW_22_131
*1010 TAP_TAPCELL_ROW_23_132
*1011 TAP_TAPCELL_ROW_23_133
*1012 TAP_TAPCELL_ROW_23_134
*1013 TAP_TAPCELL_ROW_24_135
*1014 TAP_TAPCELL_ROW_24_136
*1015 TAP_TAPCELL_ROW_24_137
*1016 TAP_TAPCELL_ROW_25_138
*1017 TAP_TAPCELL_ROW_25_139
*1018 TAP_TAPCELL_ROW_25_140
*1019 TAP_TAPCELL_ROW_26_141
*1020 TAP_TAPCELL_ROW_26_142
*1021 TAP_TAPCELL_ROW_26_143
*1022 TAP_TAPCELL_ROW_27_144
*1023 TAP_TAPCELL_ROW_27_145
*1024 TAP_TAPCELL_ROW_27_146
*1025 TAP_TAPCELL_ROW_28_147
*1026 TAP_TAPCELL_ROW_28_148
*1027 TAP_TAPCELL_ROW_28_149
*1028 TAP_TAPCELL_ROW_29_150
*1029 TAP_TAPCELL_ROW_29_151
*1030 TAP_TAPCELL_ROW_29_152
*1031 TAP_TAPCELL_ROW_29_153
*1032 TAP_TAPCELL_ROW_29_154
*1033 TAP_TAPCELL_ROW_29_155
*1034 TAP_TAPCELL_ROW_2_69
*1035 TAP_TAPCELL_ROW_2_70
*1036 TAP_TAPCELL_ROW_2_71
*1037 TAP_TAPCELL_ROW_3_72
*1038 TAP_TAPCELL_ROW_3_73
*1039 TAP_TAPCELL_ROW_3_74
*1040 TAP_TAPCELL_ROW_4_75
*1041 TAP_TAPCELL_ROW_4_76
*1042 TAP_TAPCELL_ROW_4_77
*1043 TAP_TAPCELL_ROW_5_78
*1044 TAP_TAPCELL_ROW_5_79
*1045 TAP_TAPCELL_ROW_5_80
*1046 TAP_TAPCELL_ROW_6_81
*1047 TAP_TAPCELL_ROW_6_82
*1048 TAP_TAPCELL_ROW_6_83
*1049 TAP_TAPCELL_ROW_7_84
*1050 TAP_TAPCELL_ROW_7_85
*1051 TAP_TAPCELL_ROW_7_86
*1052 TAP_TAPCELL_ROW_8_87
*1053 TAP_TAPCELL_ROW_8_88
*1054 TAP_TAPCELL_ROW_8_89
*1055 TAP_TAPCELL_ROW_9_90
*1056 TAP_TAPCELL_ROW_9_91
*1057 TAP_TAPCELL_ROW_9_92
*1058 _313_
*1059 _314_
*1060 _315_
*1061 _316_
*1062 _317_
*1063 _318_
*1064 _319_
*1065 _320_
*1066 _321_
*1067 _322_
*1068 _323_
*1069 _324_
*1070 _325_
*1071 _326_
*1072 _327_
*1073 _328_
*1074 _329_
*1075 _330_
*1076 _331_
*1077 _332_
*1078 _333_
*1079 _334_
*1080 _335_
*1081 _336_
*1082 _337_
*1083 _338_
*1084 _339_
*1085 _340_
*1086 _341_
*1087 _342_
*1088 _343_
*1089 _344_
*1090 _345_
*1091 _346_
*1092 _347_
*1093 _348_
*1094 _349_
*1095 _350_
*1096 _351_
*1097 _352_
*1098 _353_
*1099 _354_
*1100 _355_
*1101 _356_
*1102 _357_
*1103 _358_
*1104 _359_
*1105 _360_
*1106 _361_
*1107 _362_
*1108 _363_
*1109 _364_
*1110 _365_
*1111 _366_
*1112 _367_
*1113 _368_
*1114 _369_
*1115 _370_
*1116 _371_
*1117 _372_
*1118 _373_
*1119 _374_
*1120 _375_
*1121 _376_
*1122 _377_
*1123 _378_
*1124 _379_
*1125 _380_
*1126 _381_
*1127 _382_
*1128 _383_
*1129 _384_
*1130 _385_
*1131 _386_
*1132 _387_
*1133 _388_
*1134 _389_
*1135 _390_
*1136 _391_
*1137 _392_
*1138 _393_
*1139 _394_
*1140 _395_
*1141 _396_
*1142 _397_
*1143 _398_
*1144 _399_
*1145 _400_
*1146 _401_
*1147 _402_
*1148 _403_
*1149 _404_
*1150 _405_
*1151 _406_
*1152 _407_
*1153 _408_
*1154 _409_
*1155 _410_
*1156 _411_
*1157 _412_
*1158 _413_
*1159 _414_
*1160 _415_
*1161 _416_
*1162 _417_
*1163 _418_
*1164 _419_
*1165 _420_
*1166 _421_
*1167 _422_
*1168 _423_
*1169 _424_
*1170 _425_
*1171 _426_
*1172 _427_
*1173 _428_
*1174 _429_
*1175 _430_
*1176 _431_
*1177 _432_
*1178 _433_
*1179 _434_
*1180 _435_
*1181 _436_
*1182 _437_
*1183 _438_
*1184 _439_
*1185 _440_
*1186 _441_
*1187 _442_
*1188 _443_
*1189 _444_
*1190 _445_
*1191 _446_
*1192 _447_
*1193 _448_
*1194 _449_
*1195 _450_
*1196 _451_
*1197 _452_
*1198 _453_
*1199 _454_
*1200 _455_
*1201 _456_
*1202 _457_
*1203 _458_
*1204 _459_
*1205 _460_
*1206 _461_
*1207 _462_
*1208 _463_
*1209 _464_
*1210 _465_
*1211 _466_
*1212 _467_
*1213 _468_
*1214 _469_
*1215 _470_
*1216 _471_
*1217 _472_
*1218 _473_
*1219 _474_
*1220 _475_
*1221 _476_
*1222 _477_
*1223 _478_
*1224 _479_
*1225 _480_
*1226 _481_
*1227 _482_
*1228 _483_
*1229 _484_
*1230 _485_
*1231 _486_
*1232 _487_
*1233 _488_
*1234 _489_
*1235 _490_
*1236 _491_
*1237 _492_
*1238 _493_
*1239 _494_
*1240 _495_
*1241 _496_
*1242 _497_
*1243 _498_
*1244 _499_
*1245 _500_
*1246 _501_
*1247 _502_
*1248 _503_
*1249 _504_
*1250 _505_
*1251 _506_
*1252 _507_
*1253 _508_
*1254 _509_
*1255 _510_
*1256 _511_
*1257 _512_
*1258 _513_
*1259 _514_
*1260 _515_
*1261 _516_
*1262 _517_
*1263 _518_
*1264 _519_
*1265 _520_
*1266 _521_
*1267 _522_
*1268 _523_
*1269 _524_
*1270 _525_
*1271 _526_
*1272 _527_
*1273 _528_
*1274 _529_
*1275 _530_
*1276 _531_
*1277 _532_
*1278 _533_
*1279 _534_
*1280 _535_
*1281 _536_
*1282 _537_
*1283 _538_
*1284 _539_
*1285 _540_
*1286 _541_
*1287 _542_
*1288 _543_
*1289 _544_
*1290 _545_
*1291 _546_
*1292 _547_
*1293 _548_
*1294 _549_
*1295 _550_
*1296 _551_
*1297 _552_
*1298 _553_
*1299 _554_
*1300 _555_
*1301 _556_
*1302 _557_
*1303 _558_
*1304 _559_
*1305 _560_
*1306 _561_
*1307 _562_
*1308 _563_
*1309 _564_
*1310 _565_
*1311 _566_
*1312 _567_
*1313 _568_
*1314 _569_
*1315 _570_
*1316 _571_
*1317 _572_
*1318 _573_
*1319 _574_
*1320 _575_
*1321 _576_
*1322 _577_
*1323 _578_
*1324 _579_
*1325 _580_
*1326 _581_
*1327 _582_
*1328 _583_
*1329 _584_
*1330 _585_
*1331 _586_
*1332 _587_
*1333 _588_
*1334 _589_
*1335 _590_
*1336 _591_
*1337 _592_
*1338 _593_
*1339 _594_
*1340 _595_
*1341 _596_
*1342 _597_
*1343 _598_
*1344 _599_
*1345 _600_
*1346 _601_
*1347 _602_
*1348 _603_
*1349 _604_
*1350 _605_
*1351 _606_
*1352 _607_
*1353 _608_
*1354 _609_
*1355 _610_
*1356 _611_
*1357 _612_
*1358 _613_
*1359 _614_
*1360 _615_
*1361 _616_
*1362 _617_
*1363 _618_
*1364 _619_
*1365 _620_
*1366 _621_
*1367 _622_
*1368 _623_
*1369 _624_
*1370 _625_
*1371 _626_
*1372 _627_
*1373 _628_
*1374 _629_
*1375 _630_
*1376 _631_
*1377 _632_
*1378 _633_
*1379 _634_
*1380 _635_
*1381 _636_
*1382 _637_
*1383 _638_
*1384 _639_
*1385 _640_
*1386 _641_
*1387 _642_
*1388 _643_
*1389 _644_
*1390 _645_
*1391 _646_
*1392 _647_
*1393 _648_
*1394 _649_
*1395 _650_
*1396 _651_
*1397 _652_
*1398 _653_
*1399 _654_
*1400 _655_
*1401 _656_
*1402 _657_
*1403 _658_
*1404 _659_
*1405 _660_
*1406 _661_
*1407 _662_
*1408 _663_
*1409 _664_
*1410 _665_
*1411 _666_
*1412 _667_
*1413 _668_
*1414 _669_
*1415 _670_
*1416 _671_
*1417 _672_
*1418 _673_
*1419 clkbuf_0_clk
*1420 clkbuf_2_0__f_clk
*1421 clkbuf_2_1__f_clk
*1422 clkbuf_2_2__f_clk
*1423 clkbuf_2_3__f_clk
*1424 clkload0
*1425 clkload1
*1426 clkload2
*1427 input1
*1428 input10
*1429 input11
*1430 input12
*1431 input13
*1432 input14
*1433 input15
*1434 input16
*1435 input17
*1436 input2
*1437 input3
*1438 input4
*1439 input5
*1440 input6
*1441 input7
*1442 input8
*1443 input9
*1444 output18
*1445 output19
*1446 output20
*1447 output21
*1448 output22
*1449 output23
*1450 output24
*1451 output25
*1452 output26
*1453 output27
*1454 output28
*1455 output29
*1456 output30
*1457 output31
*1458 output32
*1459 output33

*PORTS
A[0] I
A[1] I
A[2] I
A[3] I
A[4] I
A[5] I
A[6] I
A[7] I
B[0] I
B[1] I
B[2] I
B[3] I
B[4] I
B[5] I
B[6] I
B[7] I
Output[0] O
Output[10] O
Output[11] O
Output[12] O
Output[13] O
Output[14] O
Output[15] O
Output[1] O
Output[2] O
Output[3] O
Output[4] O
Output[5] O
Output[6] O
Output[7] O
Output[8] O
Output[9] O
clk I
reset I

*D_NET *1 0.00125105
*CONN
*P A[0] I
*I *1427:A I *D sky130_fd_sc_hd__clkbuf_1
*CAP
1 A[0] 0.000561001
2 *1427:A 0
3 *1:9 0.000561001
4 *1:9 *23:12 0.000129051
*RES
1 A[0] *1:9 27.3871 
2 *1:9 *1427:A 23 
*END

*D_NET *2 0.00111444
*CONN
*P A[1] I
*I *1436:A I *D sky130_fd_sc_hd__clkbuf_1
*CAP
1 A[1] 0.000528243
2 *1436:A 0.000528243
3 *1436:A *1450:A 5.79559e-05
*RES
1 A[1] *1436:A 49.4343 
*END

*D_NET *3 0.00113599
*CONN
*P A[2] I
*I *1437:A I *D sky130_fd_sc_hd__clkbuf_1
*CAP
1 A[2] 0.000524952
2 *1437:A 0.000524952
3 *1437:A *1450:A 5.67058e-05
4 *1437:A *398:6 2.93845e-05
*RES
1 A[2] *1437:A 49.4343 
*END

*D_NET *4 0.00110789
*CONN
*P A[3] I
*I *1438:A I *D sky130_fd_sc_hd__clkbuf_1
*CAP
1 A[3] 0.000527738
2 *1438:A 0.000527738
3 *1438:A *398:6 2.93845e-05
4 *1438:A *409:10 2.30292e-05
*RES
1 A[3] *1438:A 49.4343 
*END

*D_NET *5 0.00112408
*CONN
*P A[4] I
*I *1439:A I *D sky130_fd_sc_hd__clkbuf_1
*CAP
1 A[4] 0.000515882
2 *1439:A 0.000515882
3 *1439:A *398:6 2.93845e-05
4 *1439:A *398:10 3.0647e-05
5 *1439:A *414:10 3.22879e-05
*RES
1 A[4] *1439:A 49.4343 
*END

*D_NET *6 0.00161658
*CONN
*P A[5] I
*I *1440:A I *D sky130_fd_sc_hd__clkbuf_1
*CAP
1 A[5] 0.000580425
2 *1440:A 0
3 *6:11 0.000580425
4 *6:11 *398:10 0
5 *6:11 *414:10 0.000139874
6 *6:11 *415:10 0.000315852
*RES
1 A[5] *6:11 29.4379 
2 *6:11 *1440:A 23 
*END

*D_NET *7 0.00164518
*CONN
*P A[6] I
*I *1441:A I *D sky130_fd_sc_hd__clkbuf_1
*CAP
1 A[6] 0.000711919
2 *1441:A 0
3 *7:13 0.000711919
4 *7:13 *40:6 0.000146822
5 *7:13 *88:8 0
6 *7:13 *415:10 0
7 *7:13 *416:8 7.45155e-05
*RES
1 A[6] *7:13 31.0121 
2 *7:13 *1441:A 23 
*END

*D_NET *8 0.00135976
*CONN
*P A[7] I
*I *1442:A I *D sky130_fd_sc_hd__clkbuf_1
*CAP
1 A[7] 0.000628686
2 *1442:A 0
3 *8:17 0.000628686
4 *8:17 *9:9 0
5 *8:17 *40:6 0.000102389
*RES
1 A[7] *8:17 30.3286 
2 *8:17 *1442:A 23 
*END

*D_NET *9 0.00126215
*CONN
*P B[0] I
*I *1443:A I *D sky130_fd_sc_hd__clkbuf_1
*CAP
1 B[0] 0.000559248
2 *1443:A 0
3 *9:9 0.000559248
4 *9:9 *40:6 0.000143655
5 *8:17 *9:9 0
*RES
1 B[0] *9:9 27.3871 
2 *9:9 *1443:A 23 
*END

*D_NET *10 0.00105035
*CONN
*P B[1] I
*I *1428:A I *D sky130_fd_sc_hd__clkbuf_1
*CAP
1 B[1] 0.000519451
2 *1428:A 0.000519451
3 *1428:A *395:337 1.14452e-05
*RES
1 B[1] *1428:A 49.5793 
*END

*D_NET *11 0.00108871
*CONN
*P B[2] I
*I *1429:A I *D sky130_fd_sc_hd__clkbuf_1
*CAP
1 B[2] 0.000541266
2 *1429:A 0.000541266
3 *1429:A *416:14 6.17437e-06
*RES
1 B[2] *1429:A 49.4343 
*END

*D_NET *12 0.00119251
*CONN
*P B[3] I
*I *1430:A I *D sky130_fd_sc_hd__clkbuf_1
*CAP
1 B[3] 0.000586516
2 *1430:A 0
3 *12:9 0.000586516
4 *12:9 *390:10 1.94812e-05
*RES
1 B[3] *12:9 27.3871 
2 *12:9 *1430:A 23 
*END

*D_NET *13 0.00107746
*CONN
*P B[4] I
*I *1431:A I *D sky130_fd_sc_hd__clkbuf_1
*CAP
1 B[4] 0.000538731
2 *1431:A 0.000538731
*RES
1 B[4] *1431:A 49.4343 
*END

*D_NET *14 0.00120417
*CONN
*P B[5] I
*I *1432:A I *D sky130_fd_sc_hd__clkbuf_1
*CAP
1 B[5] 0.00060023
2 *1432:A 0
3 *14:9 0.00060023
4 *14:9 *391:8 3.7122e-06
*RES
1 B[5] *14:9 27.3871 
2 *14:9 *1432:A 23 
*END

*D_NET *15 0.00118384
*CONN
*P B[6] I
*I *1433:A I *D sky130_fd_sc_hd__clkbuf_1
*CAP
1 B[6] 0.000580405
2 *1433:A 0
3 *15:9 0.000580405
4 *15:9 *393:10 2.30292e-05
*RES
1 B[6] *15:9 27.3871 
2 *15:9 *1433:A 23 
*END

*D_NET *16 0.00112878
*CONN
*P B[7] I
*I *1434:A I *D sky130_fd_sc_hd__clkbuf_1
*CAP
1 B[7] 0.000564392
2 *1434:A 0.000564392
*RES
1 B[7] *1434:A 49.9107 
*END

*D_NET *17 0.000810872
*CONN
*P Output[0] O
*I *1444:X O *D sky130_fd_sc_hd__buf_1
*CAP
1 Output[0] 0.000385552
2 *1444:X 0.000385552
3 Output[0] Output[1] 0
4 Output[0] *24:16 0
5 Output[0] *71:10 0
6 Output[0] *405:10 3.97677e-05
*RES
1 *1444:X Output[0] 49.8961 
*END

*D_NET *18 0.000760374
*CONN
*P Output[10] O
*I *1445:X O *D sky130_fd_sc_hd__buf_1
*CAP
1 Output[10] 4.87632e-05
2 *1445:X 0.000328336
3 *18:16 0.0003771
4 Output[10] Output[11] 0
5 Output[10] Output[9] 0
6 Output[10] *32:16 0
7 *18:16 Output[11] 0
8 *18:16 *1445:A 6.17437e-06
*RES
1 *1445:X *18:16 49.9587 
2 *18:16 Output[10] 0.199733 
*END

*D_NET *19 0.000760374
*CONN
*P Output[11] O
*I *1446:X O *D sky130_fd_sc_hd__buf_1
*CAP
1 Output[11] 4.87632e-05
2 *1446:X 0.000328336
3 *19:16 0.0003771
4 Output[11] Output[12] 0
5 *19:16 Output[12] 0
6 *19:16 *1446:A 6.17437e-06
7 Output[10] Output[11] 0
8 *18:16 Output[11] 0
*RES
1 *1446:X *19:16 49.9587 
2 *19:16 Output[11] 0.199733 
*END

*D_NET *20 0.000900175
*CONN
*P Output[12] O
*I *1447:X O *D sky130_fd_sc_hd__buf_1
*CAP
1 Output[12] 0.000124522
2 *1447:X 0.000325565
3 *20:10 0.000450088
4 Output[12] Output[13] 0
5 *20:10 *21:16 0
6 *20:10 *400:10 0
7 *20:10 *401:8 0
8 Output[11] Output[12] 0
9 *19:16 Output[12] 0
*RES
1 *1447:X *20:10 43.4375 
2 *20:10 Output[12] 8.4816 
*END

*D_NET *21 0.000762292
*CONN
*P Output[13] O
*I *1448:X O *D sky130_fd_sc_hd__buf_1
*CAP
1 Output[13] 4.87632e-05
2 *1448:X 0.000329296
3 *21:16 0.000378059
4 Output[13] Output[14] 0
5 *21:16 Output[14] 0
6 *21:16 *1448:A 6.17437e-06
7 Output[12] Output[13] 0
8 *20:10 *21:16 0
*RES
1 *1448:X *21:16 49.9587 
2 *21:16 Output[13] 0.199733 
*END

*D_NET *22 0.000661721
*CONN
*P Output[14] O
*I *1449:X O *D sky130_fd_sc_hd__buf_1
*CAP
1 Output[14] 0.000330861
2 *1449:X 0.000330861
3 Output[14] Output[15] 0
4 Output[14] *85:8 0
5 Output[13] Output[14] 0
6 *21:16 Output[14] 0
*RES
1 *1449:X Output[14] 48.3188 
*END

*D_NET *23 0.000953112
*CONN
*P Output[15] O
*I *1450:X O *D sky130_fd_sc_hd__buf_1
*CAP
1 Output[15] 0.00017213
2 *1450:X 0.0002399
3 *23:12 0.000412031
4 Output[14] Output[15] 0
5 *1:9 *23:12 0.000129051
*RES
1 *1450:X *23:12 49.5525 
2 *23:12 Output[15] 0.586133 
*END

*D_NET *24 0.000724659
*CONN
*P Output[1] O
*I *1451:X O *D sky130_fd_sc_hd__buf_1
*CAP
1 Output[1] 4.64007e-05
2 *1451:X 0.000315929
3 *24:16 0.00036233
4 Output[1] Output[2] 0
5 *24:16 Output[2] 0
6 Output[0] Output[1] 0
7 Output[0] *24:16 0
*RES
1 *1451:X *24:16 49.9587 
2 *24:16 Output[1] 0.199733 
*END

*D_NET *25 0.000736629
*CONN
*P Output[2] O
*I *1452:X O *D sky130_fd_sc_hd__buf_1
*CAP
1 Output[2] 4.87632e-05
2 *1452:X 0.000319551
3 *25:16 0.000368315
4 Output[2] Output[3] 0
5 *25:16 Output[3] 0
6 Output[1] Output[2] 0
7 *24:16 Output[2] 0
*RES
1 *1452:X *25:16 49.9587 