* NGSPICE file created from Top.ext - technology: sky130A

* Black-box entry subcircuit for sky130_fd_sc_hd__fill_1 abstract view
.subckt sky130_fd_sc_hd__fill_1 VGND VNB VPB VPWR
.ends

* Black-box entry subcircuit for sky130_fd_sc_hd__nand2_1 abstract view
.subckt sky130_fd_sc_hd__nand2_1 A B VGND VNB VPB VPWR Y
.ends

* Black-box entry subcircuit for sky130_fd_sc_hd__o21ai_2 abstract view
.subckt sky130_fd_sc_hd__o21ai_2 A1 A2 B1 VGND VNB VPB VPWR Y
.ends

* Black-box entry subcircuit for sky130_fd_sc_hd__decap_8 abstract view
.subckt sky130_fd_sc_hd__decap_8 VGND VNB VPB VPWR
.ends

* Black-box entry subcircuit for sky130_fd_sc_hd__a21o_1 abstract view
.subckt sky130_fd_sc_hd__a21o_1 A1 A2 B1 VGND VNB VPB VPWR X
.ends

* Black-box entry subcircuit for sky130_fd_sc_hd__o21bai_1 abstract view
.subckt sky130_fd_sc_hd__o21bai_1 A1 A2 B1_N VGND VNB VPB VPWR Y
.ends

* Black-box entry subcircuit for sky130_fd_sc_hd__tapvpwrvgnd_1 abstract view
.subckt sky130_fd_sc_hd__tapvpwrvgnd_1 VGND VPWR
.ends

* Black-box entry subcircuit for sky130_fd_sc_hd__o21ai_1 abstract view
.subckt sky130_fd_sc_hd__o21ai_1 A1 A2 B1 VGND VNB VPB VPWR Y
.ends

* Black-box entry subcircuit for sky130_fd_sc_hd__decap_3 abstract view
.subckt sky130_fd_sc_hd__decap_3 VGND VNB VPB VPWR
.ends

* Black-box entry subcircuit for sky130_ef_sc_hd__decap_12 abstract view
.subckt sky130_ef_sc_hd__decap_12 VPWR VGND VPB VNB
.ends

* Black-box entry subcircuit for sky130_fd_sc_hd__o221a_1 abstract view
.subckt sky130_fd_sc_hd__o221a_1 A1 A2 B1 B2 C1 VGND VNB VPB VPWR X
.ends

* Black-box entry subcircuit for sky130_fd_sc_hd__dfrtp_4 abstract view
.subckt sky130_fd_sc_hd__dfrtp_4 CLK D RESET_B VGND VNB VPB VPWR Q
.ends

* Black-box entry subcircuit for sky130_fd_sc_hd__decap_4 abstract view
.subckt sky130_fd_sc_hd__decap_4 VGND VNB VPB VPWR
.ends

* Black-box entry subcircuit for sky130_fd_sc_hd__fill_2 abstract view
.subckt sky130_fd_sc_hd__fill_2 VGND VNB VPB VPWR
.ends

* Black-box entry subcircuit for sky130_fd_sc_hd__a21bo_1 abstract view
.subckt sky130_fd_sc_hd__a21bo_1 A1 A2 B1_N VGND VNB VPB VPWR X
.ends

* Black-box entry subcircuit for sky130_fd_sc_hd__buf_1 abstract view
.subckt sky130_fd_sc_hd__buf_1 A VGND VNB VPB VPWR X
.ends

* Black-box entry subcircuit for sky130_fd_sc_hd__dfrtp_1 abstract view
.subckt sky130_fd_sc_hd__dfrtp_1 CLK D RESET_B VGND VNB VPB VPWR Q
.ends

* Black-box entry subcircuit for sky130_fd_sc_hd__o21bai_2 abstract view
.subckt sky130_fd_sc_hd__o21bai_2 A1 A2 B1_N VGND VNB VPB VPWR Y
.ends

* Black-box entry subcircuit for sky130_fd_sc_hd__xor2_1 abstract view
.subckt sky130_fd_sc_hd__xor2_1 A B VGND VNB VPB VPWR X
.ends

* Black-box entry subcircuit for sky130_fd_sc_hd__inv_2 abstract view
.subckt sky130_fd_sc_hd__inv_2 A VGND VNB VPB VPWR Y
.ends

* Black-box entry subcircuit for sky130_fd_sc_hd__o21ba_1 abstract view
.subckt sky130_fd_sc_hd__o21ba_1 A1 A2 B1_N VGND VNB VPB VPWR X
.ends

* Black-box entry subcircuit for sky130_fd_sc_hd__mux2_1 abstract view
.subckt sky130_fd_sc_hd__mux2_1 A0 A1 S VGND VNB VPB VPWR X
.ends

* Black-box entry subcircuit for sky130_fd_sc_hd__and3_1 abstract view
.subckt sky130_fd_sc_hd__and3_1 A B C VGND VNB VPB VPWR X
.ends

* Black-box entry subcircuit for sky130_fd_sc_hd__a21oi_1 abstract view
.subckt sky130_fd_sc_hd__a21oi_1 A1 A2 B1 VGND VNB VPB VPWR Y
.ends

* Black-box entry subcircuit for sky130_fd_sc_hd__a2bb2o_1 abstract view
.subckt sky130_fd_sc_hd__a2bb2o_1 A1_N A2_N B1 B2 VGND VNB VPB VPWR X
.ends

* Black-box entry subcircuit for sky130_fd_sc_hd__nand2b_1 abstract view
.subckt sky130_fd_sc_hd__nand2b_1 A_N B VGND VNB VPB VPWR Y
.ends

* Black-box entry subcircuit for sky130_fd_sc_hd__a22o_1 abstract view
.subckt sky130_fd_sc_hd__a22o_1 A1 A2 B1 B2 VGND VNB VPB VPWR X
.ends

* Black-box entry subcircuit for sky130_fd_sc_hd__decap_6 abstract view
.subckt sky130_fd_sc_hd__decap_6 VGND VNB VPB VPWR
.ends

* Black-box entry subcircuit for sky130_fd_sc_hd__nor2_1 abstract view
.subckt sky130_fd_sc_hd__nor2_1 A B VGND VNB VPB VPWR Y
.ends

* Black-box entry subcircuit for sky130_fd_sc_hd__and2b_1 abstract view
.subckt sky130_fd_sc_hd__and2b_1 A_N B VGND VNB VPB VPWR X
.ends

* Black-box entry subcircuit for sky130_fd_sc_hd__or3_1 abstract view
.subckt sky130_fd_sc_hd__or3_1 A B C VGND VNB VPB VPWR X
.ends

* Black-box entry subcircuit for sky130_fd_sc_hd__xnor2_1 abstract view
.subckt sky130_fd_sc_hd__xnor2_1 A B VGND VNB VPB VPWR Y
.ends

* Black-box entry subcircuit for sky130_fd_sc_hd__nand2b_2 abstract view
.subckt sky130_fd_sc_hd__nand2b_2 A_N B VGND VNB VPB VPWR Y
.ends

* Black-box entry subcircuit for sky130_fd_sc_hd__clkbuf_4 abstract view
.subckt sky130_fd_sc_hd__clkbuf_4 A VGND VNB VPB VPWR X
.ends

* Black-box entry subcircuit for sky130_fd_sc_hd__and3b_1 abstract view
.subckt sky130_fd_sc_hd__and3b_1 A_N B C VGND VNB VPB VPWR X
.ends

* Black-box entry subcircuit for sky130_fd_sc_hd__a31o_1 abstract view
.subckt sky130_fd_sc_hd__a31o_1 A1 A2 A3 B1 VGND VNB VPB VPWR X
.ends

* Black-box entry subcircuit for sky130_fd_sc_hd__bufinv_16 abstract view
.subckt sky130_fd_sc_hd__bufinv_16 A VGND VNB VPB VPWR Y
.ends

* Black-box entry subcircuit for sky130_fd_sc_hd__o21a_1 abstract view
.subckt sky130_fd_sc_hd__o21a_1 A1 A2 B1 VGND VNB VPB VPWR X
.ends

* Black-box entry subcircuit for sky130_fd_sc_hd__or3b_1 abstract view
.subckt sky130_fd_sc_hd__or3b_1 A B C_N VGND VNB VPB VPWR X
.ends

* Black-box entry subcircuit for sky130_fd_sc_hd__and2_1 abstract view
.subckt sky130_fd_sc_hd__and2_1 A B VGND VNB VPB VPWR X
.ends

* Black-box entry subcircuit for sky130_fd_sc_hd__clkinv_2 abstract view
.subckt sky130_fd_sc_hd__clkinv_2 A VGND VNB VPB VPWR Y
.ends

* Black-box entry subcircuit for sky130_fd_sc_hd__xnor2_2 abstract view
.subckt sky130_fd_sc_hd__xnor2_2 A B VGND VNB VPB VPWR Y
.ends

* Black-box entry subcircuit for sky130_fd_sc_hd__clkbuf_16 abstract view
.subckt sky130_fd_sc_hd__clkbuf_16 A VGND VNB VPB VPWR X
.ends

* Black-box entry subcircuit for sky130_fd_sc_hd__a32oi_4 abstract view
.subckt sky130_fd_sc_hd__a32oi_4 A1 A2 A3 B1 B2 VGND VNB VPB VPWR Y
.ends

* Black-box entry subcircuit for sky130_fd_sc_hd__or2_1 abstract view
.subckt sky130_fd_sc_hd__or2_1 A B VGND VNB VPB VPWR X
.ends

* Black-box entry subcircuit for sky130_fd_sc_hd__o2bb2a_1 abstract view
.subckt sky130_fd_sc_hd__o2bb2a_1 A1_N A2_N B1 B2 VGND VNB VPB VPWR X
.ends

* Black-box entry subcircuit for sky130_fd_sc_hd__clkbuf_1 abstract view
.subckt sky130_fd_sc_hd__clkbuf_1 A VGND VNB VPB VPWR X
.ends

* Black-box entry subcircuit for sky130_fd_sc_hd__o22a_1 abstract view
.subckt sky130_fd_sc_hd__o22a_1 A1 A2 B1 B2 VGND VNB VPB VPWR X
.ends

* Black-box entry subcircuit for sky130_fd_sc_hd__or3_2 abstract view
.subckt sky130_fd_sc_hd__or3_2 A B C VGND VNB VPB VPWR X
.ends

* Black-box entry subcircuit for sky130_fd_sc_hd__a211o_1 abstract view
.subckt sky130_fd_sc_hd__a211o_1 A1 A2 B1 C1 VGND VNB VPB VPWR X
.ends

* Black-box entry subcircuit for sky130_fd_sc_hd__or2_2 abstract view
.subckt sky130_fd_sc_hd__or2_2 A B VGND VNB VPB VPWR X
.ends

* Black-box entry subcircuit for sky130_fd_sc_hd__nor3b_1 abstract view
.subckt sky130_fd_sc_hd__nor3b_1 A B C_N VGND VNB VPB VPWR Y
.ends

* Black-box entry subcircuit for sky130_fd_sc_hd__nand3b_1 abstract view
.subckt sky130_fd_sc_hd__nand3b_1 A_N B C VGND VNB VPB VPWR Y
.ends

* Black-box entry subcircuit for sky130_fd_sc_hd__a21boi_1 abstract view
.subckt sky130_fd_sc_hd__a21boi_1 A1 A2 B1_N VGND VNB VPB VPWR Y
.ends

* Black-box entry subcircuit for sky130_fd_sc_hd__o221ai_2 abstract view
.subckt sky130_fd_sc_hd__o221ai_2 A1 A2 B1 B2 C1 VGND VNB VPB VPWR Y
.ends

* Black-box entry subcircuit for sky130_fd_sc_hd__dfrtp_2 abstract view
.subckt sky130_fd_sc_hd__dfrtp_2 CLK D RESET_B VGND VNB VPB VPWR Q
.ends

* Black-box entry subcircuit for sky130_fd_sc_hd__o211a_1 abstract view
.subckt sky130_fd_sc_hd__o211a_1 A1 A2 B1 C1 VGND VNB VPB VPWR X
.ends

* Black-box entry subcircuit for sky130_fd_sc_hd__and4_1 abstract view
.subckt sky130_fd_sc_hd__and4_1 A B C D VGND VNB VPB VPWR X
.ends

* Black-box entry subcircuit for sky130_fd_sc_hd__xnor2_4 abstract view
.subckt sky130_fd_sc_hd__xnor2_4 A B VGND VNB VPB VPWR Y
.ends

* Black-box entry subcircuit for sky130_fd_sc_hd__nand3_1 abstract view
.subckt sky130_fd_sc_hd__nand3_1 A B C VGND VNB VPB VPWR Y
.ends

* Black-box entry subcircuit for sky130_fd_sc_hd__mux2_2 abstract view
.subckt sky130_fd_sc_hd__mux2_2 A0 A1 S VGND VNB VPB VPWR X
.ends

* Black-box entry subcircuit for sky130_fd_sc_hd__buf_12 abstract view
.subckt sky130_fd_sc_hd__buf_12 A VGND VNB VPB VPWR X
.ends

* Black-box entry subcircuit for sky130_fd_sc_hd__a21oi_2 abstract view
.subckt sky130_fd_sc_hd__a21oi_2 A1 A2 B1 VGND VNB VPB VPWR Y
.ends

* Black-box entry subcircuit for sky130_fd_sc_hd__a32o_1 abstract view
.subckt sky130_fd_sc_hd__a32o_1 A1 A2 A3 B1 B2 VGND VNB VPB VPWR X
.ends

* Black-box entry subcircuit for sky130_fd_sc_hd__o32a_1 abstract view
.subckt sky130_fd_sc_hd__o32a_1 A1 A2 A3 B1 B2 VGND VNB VPB VPWR X
.ends

* Black-box entry subcircuit for sky130_fd_sc_hd__or4b_1 abstract view
.subckt sky130_fd_sc_hd__or4b_1 A B C D_N VGND VNB VPB VPWR X
.ends

* Black-box entry subcircuit for sky130_fd_sc_hd__nor2_2 abstract view
.subckt sky130_fd_sc_hd__nor2_2 A B VGND VNB VPB VPWR Y
.ends

* Black-box entry subcircuit for sky130_fd_sc_hd__or3b_2 abstract view
.subckt sky130_fd_sc_hd__or3b_2 A B C_N VGND VNB VPB VPWR X
.ends

* Black-box entry subcircuit for sky130_fd_sc_hd__nand2_2 abstract view
.subckt sky130_fd_sc_hd__nand2_2 A B VGND VNB VPB VPWR Y
.ends

.subckt Top A[0] A[1] A[2] A[3] A[4] A[5] A[6] A[7] B[0] B[1] B[2] B[3] B[4] B[5]
+ B[6] B[7] Output[0] Output[10] Output[11] Output[12] Output[13] Output[14] Output[15]
+ Output[1] Output[2] Output[3] Output[4] Output[5] Output[6] Output[7] Output[8]
+ Output[9] VGND VPWR clk reset
XFILLER_26_85 VGND VGND VPWR VPWR sky130_fd_sc_hd__fill_1
X_363_ A_ff\[0\] _045_ VGND VGND VPWR VPWR _047_ sky130_fd_sc_hd__nand2_1
X_501_ _155_ _160_ _161_ VGND VGND VPWR VPWR _180_ sky130_fd_sc_hd__o21ai_2
XFILLER_3_67 VGND VGND VPWR VPWR sky130_fd_sc_hd__decap_8
X_432_ _111_ _112_ _110_ VGND VGND VPWR VPWR _113_ sky130_fd_sc_hd__a21o_1
X_346_ B_ff\[1\] B_ff\[2\] B_ff\[3\] VGND VGND VPWR VPWR _312_ sky130_fd_sc_hd__o21bai_1
XFILLER_6_118 VGND VGND VPWR VPWR sky130_fd_sc_hd__fill_1
XTAP_TAPCELL_ROW_8_88 VGND VPWR sky130_fd_sc_hd__tapvpwrvgnd_1
X_415_ A_ff\[5\] _292_ _096_ VGND VGND VPWR VPWR _097_ sky130_fd_sc_hd__o21ai_1
XFILLER_10_158 VGND VGND VPWR VPWR sky130_fd_sc_hd__fill_1
XPHY_EDGE_ROW_20_Left_50 VGND VGND VPWR VPWR sky130_fd_sc_hd__decap_3
XFILLER_23_53 VGND VGND VPWR VPWR sky130_fd_sc_hd__decap_3
XFILLER_23_31 VGND VGND VPWR VPWR sky130_fd_sc_hd__decap_3
XFILLER_0_57 VPWR VGND VPWR VGND sky130_ef_sc_hd__decap_12
X_329_ A_ff\[2\] _291_ _292_ A_ff\[1\] _295_ VGND VGND VPWR VPWR _296_ sky130_fd_sc_hd__o221a_1
XFILLER_18_97 VPWR VGND VPWR VGND sky130_ef_sc_hd__decap_12
XFILLER_15_6 VPWR VGND VPWR VGND sky130_ef_sc_hd__decap_12
XTAP_TAPCELL_ROW_5_78 VGND VPWR sky130_fd_sc_hd__tapvpwrvgnd_1
XFILLER_29_96 VGND VGND VPWR VPWR sky130_fd_sc_hd__fill_1
XFILLER_29_52 VGND VGND VPWR VPWR sky130_fd_sc_hd__fill_1
X_663_ clknet_2_3__leaf_clk net6 _021_ VGND VGND VPWR VPWR A_ff\[5\] sky130_fd_sc_hd__dfrtp_4
X_594_ _249_ _267_ VGND VGND VPWR VPWR _269_ sky130_fd_sc_hd__nand2_1
XFILLER_25_153 VGND VGND VPWR VPWR sky130_fd_sc_hd__decap_4
XFILLER_15_54 VGND VGND VPWR VPWR sky130_fd_sc_hd__fill_2
X_577_ _234_ _238_ _233_ VGND VGND VPWR VPWR _253_ sky130_fd_sc_hd__a21bo_1
Xoutput20 net20 VGND VGND VPWR VPWR Output[11] sky130_fd_sc_hd__buf_1
Xoutput31 net31 VGND VGND VPWR VPWR Output[7] sky130_fd_sc_hd__buf_1
X_646_ clknet_2_0__leaf_clk Adder.cla_16_bit.Sum\[4\] _004_ VGND VGND VPWR VPWR net28
+ sky130_fd_sc_hd__dfrtp_1
X_362_ B_ff\[3\] B_ff\[4\] B_ff\[5\] VGND VGND VPWR VPWR _046_ sky130_fd_sc_hd__o21bai_2
X_500_ A_ff\[3\] _120_ _178_ VGND VGND VPWR VPWR _179_ sky130_fd_sc_hd__a21bo_1
XFILLER_13_178 VGND VGND VPWR VPWR sky130_fd_sc_hd__fill_1
XFILLER_13_167 VGND VGND VPWR VPWR sky130_fd_sc_hd__fill_1
X_431_ _111_ _112_ VGND VGND VPWR VPWR Adder.cla_16_bit.Sum\[6\] sky130_fd_sc_hd__xor2_1
X_629_ net17 VGND VGND VPWR VPWR _019_ sky130_fd_sc_hd__inv_2
XTAP_TAPCELL_ROW_12_99 VGND VPWR sky130_fd_sc_hd__tapvpwrvgnd_1
X_345_ B_ff\[1\] B_ff\[2\] B_ff\[3\] VGND VGND VPWR VPWR _311_ sky130_fd_sc_hd__o21ba_1
X_414_ _291_ _294_ A_ff\[6\] VGND VGND VPWR VPWR _096_ sky130_fd_sc_hd__mux2_1
XTAP_TAPCELL_ROW_8_89 VGND VPWR sky130_fd_sc_hd__tapvpwrvgnd_1
XPHY_EDGE_ROW_21_Right_21 VGND VGND VPWR VPWR sky130_fd_sc_hd__decap_3
XPHY_EDGE_ROW_12_Right_12 VGND VGND VPWR VPWR sky130_fd_sc_hd__decap_3
XFILLER_2_100 VGND VGND VPWR VPWR sky130_fd_sc_hd__decap_3
XFILLER_0_69 VPWR VGND VPWR VGND sky130_ef_sc_hd__decap_12
X_328_ A_ff\[2\] _293_ VGND VGND VPWR VPWR _295_ sky130_fd_sc_hd__nand2_1
XFILLER_9_23 VGND VGND VPWR VPWR sky130_fd_sc_hd__fill_2
XFILLER_18_10 VGND VGND VPWR VPWR sky130_fd_sc_hd__fill_1
XTAP_TAPCELL_ROW_5_79 VGND VPWR sky130_fd_sc_hd__tapvpwrvgnd_1
X_662_ clknet_2_1__leaf_clk net5 _020_ VGND VGND VPWR VPWR A_ff\[4\] sky130_fd_sc_hd__dfrtp_4
XFILLER_1_90 VGND VGND VPWR VPWR sky130_fd_sc_hd__decap_3
X_593_ _250_ _251_ _267_ VGND VGND VPWR VPWR _268_ sky130_fd_sc_hd__and3_1
XFILLER_19_162 VGND VGND VPWR VPWR sky130_fd_sc_hd__fill_1
XPHY_EDGE_ROW_6_Right_6 VGND VGND VPWR VPWR sky130_fd_sc_hd__decap_3
Xoutput21 net21 VGND VGND VPWR VPWR Output[12] sky130_fd_sc_hd__buf_1
X_576_ _250_ _251_ VGND VGND VPWR VPWR _252_ sky130_fd_sc_hd__xor2_1
XFILLER_16_176 VGND VGND VPWR VPWR sky130_fd_sc_hd__decap_3
XFILLER_15_88 VGND VGND VPWR VPWR sky130_fd_sc_hd__decap_3
Xoutput32 net32 VGND VGND VPWR VPWR Output[8] sky130_fd_sc_hd__buf_1
XTAP_TAPCELL_ROW_2_69 VGND VPWR sky130_fd_sc_hd__tapvpwrvgnd_1
X_645_ clknet_2_0__leaf_clk Adder.cla_16_bit.Sum\[3\] _003_ VGND VGND VPWR VPWR net27
+ sky130_fd_sc_hd__dfrtp_1
XFILLER_22_157 VGND VGND VPWR VPWR sky130_fd_sc_hd__fill_1
XFILLER_22_113 VPWR VGND VPWR VGND sky130_ef_sc_hd__decap_12
X_361_ B_ff\[3\] B_ff\[4\] B_ff\[5\] VGND VGND VPWR VPWR _045_ sky130_fd_sc_hd__o21ba_1
XTAP_TAPCELL_ROW_15_108 VGND VPWR sky130_fd_sc_hd__tapvpwrvgnd_1
XFILLER_13_113 VGND VGND VPWR VPWR sky130_fd_sc_hd__fill_2
X_430_ _087_ _088_ _086_ VGND VGND VPWR VPWR _112_ sky130_fd_sc_hd__a21o_1
X_559_ _285_ _089_ _119_ VGND VGND VPWR VPWR _236_ sky130_fd_sc_hd__a21o_1
X_628_ net17 VGND VGND VPWR VPWR _018_ sky130_fd_sc_hd__inv_2
XFILLER_12_23 VGND VGND VPWR VPWR sky130_fd_sc_hd__decap_4
X_413_ _284_ _068_ _094_ VGND VGND VPWR VPWR _095_ sky130_fd_sc_hd__a21oi_1
X_344_ A_ff\[1\] _299_ _305_ _283_ VGND VGND VPWR VPWR _310_ sky130_fd_sc_hd__a2bb2o_1
XFILLER_5_131 VGND VGND VPWR VPWR sky130_fd_sc_hd__decap_8
XFILLER_23_77 VGND VGND VPWR VPWR sky130_fd_sc_hd__decap_3
XFILLER_23_66 VGND VGND VPWR VPWR sky130_fd_sc_hd__decap_3
XFILLER_0_48 VGND VGND VPWR VPWR sky130_fd_sc_hd__decap_8
X_327_ B_ff\[1\] B_ff\[0\] VGND VGND VPWR VPWR _294_ sky130_fd_sc_hd__nand2b_1
XFILLER_9_57 VPWR VGND VPWR VGND sky130_ef_sc_hd__decap_12
XPHY_EDGE_ROW_8_Left_38 VGND VGND VPWR VPWR sky130_fd_sc_hd__decap_3
X_661_ clknet_2_1__leaf_clk net4 _019_ VGND VGND VPWR VPWR A_ff\[3\] sky130_fd_sc_hd__dfrtp_4
XFILLER_28_174 VGND VGND VPWR VPWR sky130_fd_sc_hd__decap_4
X_592_ _287_ _120_ _265_ _266_ VGND VGND VPWR VPWR _267_ sky130_fd_sc_hd__a22o_1
XFILLER_20_6 VGND VGND VPWR VPWR sky130_fd_sc_hd__decap_6
Xoutput22 net22 VGND VGND VPWR VPWR Output[13] sky130_fd_sc_hd__buf_1
X_575_ _201_ _231_ VGND VGND VPWR VPWR _251_ sky130_fd_sc_hd__nor2_1
XTAP_TAPCELL_ROW_18_117 VGND VPWR sky130_fd_sc_hd__tapvpwrvgnd_1
Xoutput33 net33 VGND VGND VPWR VPWR Output[9] sky130_fd_sc_hd__buf_1
X_644_ clknet_2_0__leaf_clk Adder.cla_16_bit.Sum\[2\] _002_ VGND VGND VPWR VPWR net26
+ sky130_fd_sc_hd__dfrtp_1
XFILLER_22_125 VPWR VGND VPWR VGND sky130_ef_sc_hd__decap_12
X_360_ B_ff\[3\] B_ff\[4\] VGND VGND VPWR VPWR _044_ sky130_fd_sc_hd__nor2_1
XTAP_TAPCELL_ROW_15_109 VGND VPWR sky130_fd_sc_hd__tapvpwrvgnd_1
X_558_ _233_ _234_ VGND VGND VPWR VPWR _235_ sky130_fd_sc_hd__nand2_1
X_627_ net17 VGND VGND VPWR VPWR _017_ sky130_fd_sc_hd__inv_2
X_489_ _141_ _144_ _142_ VGND VGND VPWR VPWR _169_ sky130_fd_sc_hd__a21oi_1
XFILLER_3_26 VGND VGND VPWR VPWR sky130_fd_sc_hd__fill_2
XTAP_TAPCELL_ROW_20_123 VGND VPWR sky130_fd_sc_hd__tapvpwrvgnd_1
XFILLER_12_68 VGND VGND VPWR VPWR sky130_fd_sc_hd__decap_4
XFILLER_12_57 VGND VGND VPWR VPWR sky130_fd_sc_hd__fill_1
XFILLER_10_139 VGND VGND VPWR VPWR sky130_fd_sc_hd__fill_1
X_412_ A_ff\[2\] _065_ _066_ A_ff\[1\] _093_ VGND VGND VPWR VPWR _094_ sky130_fd_sc_hd__o221a_1
X_343_ A_ff\[2\] _292_ _308_ VGND VGND VPWR VPWR _309_ sky130_fd_sc_hd__o21ai_2
XFILLER_5_121 VGND VGND VPWR VPWR sky130_fd_sc_hd__decap_3
XFILLER_23_23 VGND VGND VPWR VPWR sky130_fd_sc_hd__decap_8
XFILLER_2_135 VGND VGND VPWR VPWR sky130_fd_sc_hd__fill_1
XFILLER_0_27 VGND VGND VPWR VPWR sky130_fd_sc_hd__fill_1
XPHY_EDGE_ROW_24_Left_54 VGND VGND VPWR VPWR sky130_fd_sc_hd__decap_3
XFILLER_9_69 VPWR VGND VPWR VGND sky130_ef_sc_hd__decap_12
XTAP_TAPCELL_ROW_9_90 VGND VPWR sky130_fd_sc_hd__tapvpwrvgnd_1
X_326_ B_ff\[1\] B_ff\[0\] VGND VGND VPWR VPWR _293_ sky130_fd_sc_hd__and2b_1
XFILLER_29_88 VGND VGND VPWR VPWR sky130_fd_sc_hd__decap_8
X_660_ clknet_2_1__leaf_clk net3 _018_ VGND VGND VPWR VPWR A_ff\[2\] sky130_fd_sc_hd__dfrtp_4
X_591_ A_ff\[6\] _114_ _123_ A_ff\[7\] _121_ VGND VGND VPWR VPWR _266_ sky130_fd_sc_hd__o221a_1
XFILLER_6_26 VGND VGND VPWR VPWR sky130_fd_sc_hd__fill_2
XFILLER_13_6 VGND VGND VPWR VPWR sky130_fd_sc_hd__decap_6
Xoutput23 net23 VGND VGND VPWR VPWR Output[14] sky130_fd_sc_hd__buf_1
XFILLER_25_178 VGND VGND VPWR VPWR sky130_fd_sc_hd__fill_1
XFILLER_25_167 VGND VGND VPWR VPWR sky130_fd_sc_hd__fill_1
XPHY_EDGE_ROW_11_Left_41 VGND VGND VPWR VPWR sky130_fd_sc_hd__decap_3
X_574_ _247_ _248_ VGND VGND VPWR VPWR _250_ sky130_fd_sc_hd__xor2_1
XTAP_TAPCELL_ROW_18_118 VGND VPWR sky130_fd_sc_hd__tapvpwrvgnd_1
X_643_ clknet_2_0__leaf_clk Adder.cla_16_bit.Sum\[1\] _001_ VGND VGND VPWR VPWR net25
+ sky130_fd_sc_hd__dfrtp_1
XFILLER_26_89 VGND VGND VPWR VPWR sky130_fd_sc_hd__decap_6
XFILLER_22_137 VGND VGND VPWR VPWR sky130_fd_sc_hd__decap_3
X_626_ net17 VGND VGND VPWR VPWR _016_ sky130_fd_sc_hd__inv_2
XTAP_TAPCELL_ROW_23_132 VGND VPWR sky130_fd_sc_hd__tapvpwrvgnd_1
X_557_ _201_ _207_ _232_ VGND VGND VPWR VPWR _234_ sky130_fd_sc_hd__or3_1
XFILLER_13_126 VGND VGND VPWR VPWR sky130_fd_sc_hd__fill_2
X_488_ _152_ _165_ VGND VGND VPWR VPWR _168_ sky130_fd_sc_hd__xnor2_1
XFILLER_3_49 VGND VGND VPWR VPWR sky130_fd_sc_hd__decap_3
XFILLER_9_119 VGND VGND VPWR VPWR sky130_fd_sc_hd__fill_1
XTAP_TAPCELL_ROW_20_124 VGND VPWR sky130_fd_sc_hd__tapvpwrvgnd_1
XFILLER_12_36 VGND VGND VPWR VPWR sky130_fd_sc_hd__fill_1
XFILLER_8_130 VGND VGND VPWR VPWR sky130_fd_sc_hd__fill_2
XFILLER_8_141 VGND VGND VPWR VPWR sky130_fd_sc_hd__decap_3
XFILLER_8_163 VGND VGND VPWR VPWR sky130_fd_sc_hd__decap_3
X_411_ A_ff\[1\] _042_ _045_ VGND VGND VPWR VPWR _093_ sky130_fd_sc_hd__o21ai_1
X_342_ _291_ _294_ A_ff\[3\] VGND VGND VPWR VPWR _308_ sky130_fd_sc_hd__mux2_1
X_609_ _281_ _282_ VGND VGND VPWR VPWR Adder.cla_16_bit.Sum\[14\] sky130_fd_sc_hd__xor2_1
XFILLER_23_57 VGND VGND VPWR VPWR sky130_fd_sc_hd__decap_4
XFILLER_4_70 VPWR VGND VPWR VGND sky130_ef_sc_hd__decap_12
XTAP_TAPCELL_ROW_0_60 VGND VPWR sky130_fd_sc_hd__tapvpwrvgnd_1
X_325_ B_ff\[0\] B_ff\[1\] VGND VGND VPWR VPWR _292_ sky130_fd_sc_hd__nand2b_2
XFILLER_9_15 VGND VGND VPWR VPWR sky130_fd_sc_hd__decap_8
XTAP_TAPCELL_ROW_9_91 VGND VPWR sky130_fd_sc_hd__tapvpwrvgnd_1
Xclkload0 clknet_2_0__leaf_clk VGND VGND VPWR VPWR clkload0/X sky130_fd_sc_hd__clkbuf_4
XFILLER_1_71 VGND VGND VPWR VPWR sky130_fd_sc_hd__decap_6
X_590_ A_ff\[6\] _115_ VGND VGND VPWR VPWR _265_ sky130_fd_sc_hd__nand2_1
XTAP_TAPCELL_ROW_6_81 VGND VPWR sky130_fd_sc_hd__tapvpwrvgnd_1
Xoutput24 net24 VGND VGND VPWR VPWR Output[15] sky130_fd_sc_hd__buf_1
XFILLER_25_157 VGND VGND VPWR VPWR sky130_fd_sc_hd__fill_1
XFILLER_25_113 VGND VGND VPWR VPWR sky130_fd_sc_hd__decap_6
XPHY_EDGE_ROW_28_Right_28 VGND VGND VPWR VPWR sky130_fd_sc_hd__decap_3
XTAP_TAPCELL_ROW_26_141 VGND VPWR sky130_fd_sc_hd__tapvpwrvgnd_1
X_573_ _247_ _248_ VGND VGND VPWR VPWR _249_ sky130_fd_sc_hd__nand2_1
XPHY_EDGE_ROW_19_Right_19 VGND VGND VPWR VPWR sky130_fd_sc_hd__decap_3
XTAP_TAPCELL_ROW_18_119 VGND VPWR sky130_fd_sc_hd__tapvpwrvgnd_1
XFILLER_16_168 VGND VGND VPWR VPWR sky130_fd_sc_hd__decap_8
X_642_ clknet_2_0__leaf_clk Adder.cla_16_bit.Sum\[0\] _000_ VGND VGND VPWR VPWR net18
+ sky130_fd_sc_hd__dfrtp_1
X_625_ net17 VGND VGND VPWR VPWR _015_ sky130_fd_sc_hd__inv_2
XTAP_TAPCELL_ROW_23_133 VGND VPWR sky130_fd_sc_hd__tapvpwrvgnd_1
X_556_ _201_ _207_ _232_ VGND VGND VPWR VPWR _233_ sky130_fd_sc_hd__o21ai_1
X_487_ _163_ _164_ _166_ VGND VGND VPWR VPWR _167_ sky130_fd_sc_hd__a21oi_1
X_410_ _091_ A_ff\[0\] _090_ VGND VGND VPWR VPWR _092_ sky130_fd_sc_hd__and3b_1
XTAP_TAPCELL_ROW_20_125 VGND VPWR sky130_fd_sc_hd__tapvpwrvgnd_1
X_341_ A_ff\[0\] _296_ _306_ _304_ VGND VGND VPWR VPWR _307_ sky130_fd_sc_hd__a31o_1
X_608_ _273_ _275_ _272_ VGND VGND VPWR VPWR _282_ sky130_fd_sc_hd__a21oi_1
X_539_ _191_ _216_ VGND VGND VPWR VPWR _217_ sky130_fd_sc_hd__and2b_1
XFILLER_5_167 VGND VGND VPWR VPWR sky130_fd_sc_hd__fill_1
XFILLER_5_178 VGND VGND VPWR VPWR sky130_fd_sc_hd__fill_1
XFILLER_4_82 VGND VGND VPWR VPWR sky130_fd_sc_hd__fill_2
XFILLER_2_115 VGND VGND VPWR VPWR sky130_fd_sc_hd__decap_6
X_324_ B_ff\[0\] B_ff\[1\] VGND VGND VPWR VPWR _291_ sky130_fd_sc_hd__nand2_1
XTAP_TAPCELL_ROW_0_61 VGND VPWR sky130_fd_sc_hd__tapvpwrvgnd_1
XTAP_TAPCELL_ROW_9_92 VGND VPWR sky130_fd_sc_hd__tapvpwrvgnd_1
Xclkload1 clknet_2_2__leaf_clk VGND VGND VPWR VPWR clkload1/Y sky130_fd_sc_hd__bufinv_16
XFILLER_18_14 VGND VGND VPWR VPWR sky130_fd_sc_hd__decap_8
XFILLER_29_24 VGND VGND VPWR VPWR sky130_fd_sc_hd__fill_1
XFILLER_28_144 VGND VGND VPWR VPWR sky130_fd_sc_hd__decap_3
XFILLER_20_26 VGND VGND VPWR VPWR sky130_fd_sc_hd__fill_2
XFILLER_20_15 VGND VGND VPWR VPWR sky130_fd_sc_hd__decap_4
XTAP_TAPCELL_ROW_29_150 VGND VPWR sky130_fd_sc_hd__tapvpwrvgnd_1
XFILLER_19_177 VGND VGND VPWR VPWR sky130_fd_sc_hd__fill_2
XFILLER_19_144 VGND VGND VPWR VPWR sky130_fd_sc_hd__fill_1
XFILLER_19_111 VGND VGND VPWR VPWR sky130_fd_sc_hd__fill_1
XTAP_TAPCELL_ROW_6_82 VGND VPWR sky130_fd_sc_hd__tapvpwrvgnd_1
XFILLER_25_169 VGND VGND VPWR VPWR sky130_fd_sc_hd__fill_2
XTAP_TAPCELL_ROW_26_142 VGND VPWR sky130_fd_sc_hd__tapvpwrvgnd_1
X_641_ net17 VGND VGND VPWR VPWR _031_ sky130_fd_sc_hd__inv_2
X_572_ _043_ _046_ A_ff\[7\] VGND VGND VPWR VPWR _248_ sky130_fd_sc_hd__mux2_1
XFILLER_21_91 VGND VGND VPWR VPWR sky130_fd_sc_hd__fill_2
XFILLER_16_147 VGND VGND VPWR VPWR sky130_fd_sc_hd__fill_1
Xoutput25 net25 VGND VGND VPWR VPWR Output[1] sky130_fd_sc_hd__buf_1
XTAP_TAPCELL_ROW_23_134 VGND VPWR sky130_fd_sc_hd__tapvpwrvgnd_1
XFILLER_21_161 VGND VGND VPWR VPWR sky130_fd_sc_hd__decap_6
XFILLER_13_106 VGND VGND VPWR VPWR sky130_fd_sc_hd__decap_6
X_624_ net17 VGND VGND VPWR VPWR _014_ sky130_fd_sc_hd__inv_2
X_555_ _208_ _230_ VGND VGND VPWR VPWR _232_ sky130_fd_sc_hd__xnor2_1
X_486_ _163_ _164_ _152_ VGND VGND VPWR VPWR _166_ sky130_fd_sc_hd__o21a_1
XTAP_TAPCELL_ROW_3_72 VGND VPWR sky130_fd_sc_hd__tapvpwrvgnd_1
XFILLER_12_27 VGND VGND VPWR VPWR sky130_fd_sc_hd__fill_1
X_607_ _268_ _279_ VGND VGND VPWR VPWR _281_ sky130_fd_sc_hd__xnor2_1
X_538_ _212_ _215_ VGND VGND VPWR VPWR _216_ sky130_fd_sc_hd__xor2_1
X_340_ B_ff\[1\] B_ff\[2\] B_ff\[3\] VGND VGND VPWR VPWR _306_ sky130_fd_sc_hd__or3b_1
XFILLER_5_113 VGND VGND VPWR VPWR sky130_fd_sc_hd__decap_8
XFILLER_5_157 VGND VGND VPWR VPWR sky130_fd_sc_hd__decap_4
XFILLER_4_94 VGND VGND VPWR VPWR sky130_fd_sc_hd__decap_4
X_469_ _113_ _149_ VGND VGND VPWR VPWR Adder.cla_16_bit.Sum\[7\] sky130_fd_sc_hd__xor2_1
X_323_ B_ff\[0\] B_ff\[1\] VGND VGND VPWR VPWR _290_ sky130_fd_sc_hd__and2_1
XTAP_TAPCELL_ROW_0_62 VGND VPWR sky130_fd_sc_hd__tapvpwrvgnd_1
Xclkload2 clknet_2_3__leaf_clk VGND VGND VPWR VPWR clkload2/Y sky130_fd_sc_hd__clkinv_2
XPHY_EDGE_ROW_28_Left_58 VGND VGND VPWR VPWR sky130_fd_sc_hd__decap_3
XTAP_TAPCELL_ROW_29_151 VGND VPWR sky130_fd_sc_hd__tapvpwrvgnd_1
XFILLER_28_178 VGND VGND VPWR VPWR sky130_fd_sc_hd__fill_1
XFILLER_6_18 VGND VGND VPWR VPWR sky130_fd_sc_hd__decap_8
XFILLER_6_29 VGND VGND VPWR VPWR sky130_fd_sc_hd__decap_4
XTAP_TAPCELL_ROW_10_93 VGND VPWR sky130_fd_sc_hd__tapvpwrvgnd_1
XTAP_TAPCELL_ROW_6_83 VGND VPWR sky130_fd_sc_hd__tapvpwrvgnd_1
X_640_ net17 VGND VGND VPWR VPWR _030_ sky130_fd_sc_hd__inv_2
XTAP_TAPCELL_ROW_26_143 VGND VPWR sky130_fd_sc_hd__tapvpwrvgnd_1
X_571_ _286_ _120_ _246_ VGND VGND VPWR VPWR _247_ sky130_fd_sc_hd__a21oi_1
XPHY_EDGE_ROW_1_Right_1 VGND VGND VPWR VPWR sky130_fd_sc_hd__decap_3
Xoutput26 net26 VGND VGND VPWR VPWR Output[2] sky130_fd_sc_hd__buf_1
XPHY_EDGE_ROW_15_Left_45 VGND VGND VPWR VPWR sky130_fd_sc_hd__decap_3
XFILLER_7_72 VGND VGND VPWR VPWR sky130_fd_sc_hd__fill_2
XFILLER_11_6 VGND VGND VPWR VPWR sky130_fd_sc_hd__decap_4
XFILLER_26_37 VPWR VGND VPWR VGND sky130_ef_sc_hd__decap_12
XFILLER_26_26 VGND VGND VPWR VPWR sky130_fd_sc_hd__fill_2
XFILLER_7_94 VGND VGND VPWR VPWR sky130_fd_sc_hd__fill_1
X_623_ net17 VGND VGND VPWR VPWR _013_ sky130_fd_sc_hd__inv_2
X_554_ _206_ _230_ VGND VGND VPWR VPWR _231_ sky130_fd_sc_hd__nor2_1
XFILLER_16_92 VGND VGND VPWR VPWR sky130_fd_sc_hd__decap_6
X_485_ _163_ _164_ VGND VGND VPWR VPWR _165_ sky130_fd_sc_hd__xor2_1
XTAP_TAPCELL_ROW_3_73 VGND VPWR sky130_fd_sc_hd__tapvpwrvgnd_1
XFILLER_8_122 VGND VGND VPWR VPWR sky130_fd_sc_hd__decap_8
XFILLER_8_155 VGND VGND VPWR VPWR sky130_fd_sc_hd__decap_8
X_606_ _268_ _279_ VGND VGND VPWR VPWR _280_ sky130_fd_sc_hd__nand2_1
X_537_ _285_ _214_ _121_ VGND VGND VPWR VPWR _215_ sky130_fd_sc_hd__mux2_1
X_468_ _125_ _147_ VGND VGND VPWR VPWR _149_ sky130_fd_sc_hd__xnor2_2
X_399_ _071_ _080_ VGND VGND VPWR VPWR _082_ sky130_fd_sc_hd__xnor2_1
X_322_ _288_ _289_ VGND VGND VPWR VPWR Adder.cla_16_bit.Sum\[1\] sky130_fd_sc_hd__xor2_1
XTAP_TAPCELL_ROW_0_63 VGND VPWR sky130_fd_sc_hd__tapvpwrvgnd_1
XPHY_EDGE_ROW_3_Left_33 VGND VGND VPWR VPWR sky130_fd_sc_hd__decap_3
XFILLER_29_48 VGND VGND VPWR VPWR sky130_fd_sc_hd__fill_1
XFILLER_19_113 VGND VGND VPWR VPWR sky130_fd_sc_hd__decap_4
XTAP_TAPCELL_ROW_10_94 VGND VPWR sky130_fd_sc_hd__tapvpwrvgnd_1
XTAP_TAPCELL_ROW_29_152 VGND VPWR sky130_fd_sc_hd__tapvpwrvgnd_1
XFILLER_19_81 VGND VGND VPWR VPWR sky130_fd_sc_hd__decap_3
X_570_ A_ff\[5\] _114_ _123_ A_ff\[6\] _245_ VGND VGND VPWR VPWR _246_ sky130_fd_sc_hd__o221a_1
Xoutput27 net27 VGND VGND VPWR VPWR Output[3] sky130_fd_sc_hd__buf_1
Xclkbuf_0_clk clk VGND VGND VPWR VPWR clknet_0_clk sky130_fd_sc_hd__clkbuf_16
XFILLER_26_49 VPWR VGND VPWR VGND sky130_ef_sc_hd__decap_12
XPHY_EDGE_ROW_24_Right_24 VGND VGND VPWR VPWR sky130_fd_sc_hd__decap_3
XPHY_EDGE_ROW_15_Right_15 VGND VGND VPWR VPWR sky130_fd_sc_hd__decap_3
XFILLER_7_40 VGND VGND VPWR VPWR sky130_fd_sc_hd__decap_8
X_622_ net17 VGND VGND VPWR VPWR _012_ sky130_fd_sc_hd__inv_2
X_553_ _227_ _228_ _229_ _068_ _287_ VGND VGND VPWR VPWR _230_ sky130_fd_sc_hd__a32oi_4
XFILLER_12_163 VGND VGND VPWR VPWR sky130_fd_sc_hd__decap_3
XFILLER_12_141 VGND VGND VPWR VPWR sky130_fd_sc_hd__fill_2
X_484_ _133_ _139_ _134_ VGND VGND VPWR VPWR _164_ sky130_fd_sc_hd__a21o_1
XTAP_TAPCELL_ROW_3_74 VGND VPWR sky130_fd_sc_hd__tapvpwrvgnd_1
XFILLER_5_148 VGND VGND VPWR VPWR sky130_fd_sc_hd__decap_6
X_605_ _277_ _278_ VGND VGND VPWR VPWR _279_ sky130_fd_sc_hd__and2_1
X_536_ A_ff\[3\] _114_ _123_ A_ff\[4\] _213_ VGND VGND VPWR VPWR _214_ sky130_fd_sc_hd__o221a_1
X_467_ _108_ _145_ _125_ VGND VGND VPWR VPWR _148_ sky130_fd_sc_hd__o21bai_1
XFILLER_4_41 VPWR VGND VPWR VGND sky130_ef_sc_hd__decap_12
X_398_ _071_ _078_ _079_ VGND VGND VPWR VPWR _081_ sky130_fd_sc_hd__o21ai_2
XTAP_TAPCELL_ROW_0_64 VGND VPWR sky130_fd_sc_hd__tapvpwrvgnd_1
X_321_ B_ff\[1\] A_ff\[0\] VGND VGND VPWR VPWR _289_ sky130_fd_sc_hd__nand2_1
X_519_ _113_ _149_ _172_ _173_ VGND VGND VPWR VPWR _198_ sky130_fd_sc_hd__a31o_1
XFILLER_24_93 VGND VGND VPWR VPWR sky130_fd_sc_hd__fill_1
XFILLER_24_82 VGND VGND VPWR VPWR sky130_fd_sc_hd__fill_2
XFILLER_1_6 VGND VGND VPWR VPWR sky130_fd_sc_hd__decap_4
XFILLER_20_29 VPWR VGND VPWR VGND sky130_ef_sc_hd__decap_12
XFILLER_29_16 VGND VGND VPWR VPWR sky130_fd_sc_hd__decap_8
XTAP_TAPCELL_ROW_10_95 VGND VPWR sky130_fd_sc_hd__tapvpwrvgnd_1
XTAP_TAPCELL_ROW_29_153 VGND VPWR sky130_fd_sc_hd__tapvpwrvgnd_1
XFILLER_19_158 VGND VGND VPWR VPWR sky130_fd_sc_hd__decap_4
XFILLER_15_18 VPWR VGND VPWR VGND sky130_ef_sc_hd__decap_12
Xoutput28 net28 VGND VGND VPWR VPWR Output[4] sky130_fd_sc_hd__buf_1
XFILLER_16_106 VPWR VGND VPWR VGND sky130_ef_sc_hd__decap_12
XFILLER_15_150 VGND VGND VPWR VPWR sky130_fd_sc_hd__fill_2
X_552_ _286_ _041_ _046_ VGND VGND VPWR VPWR _229_ sky130_fd_sc_hd__a21o_1
X_621_ net17 VGND VGND VPWR VPWR _011_ sky130_fd_sc_hd__inv_2
X_483_ _155_ _162_ VGND VGND VPWR VPWR _163_ sky130_fd_sc_hd__xnor2_1
XFILLER_8_135 VGND VGND VPWR VPWR sky130_fd_sc_hd__fill_1
XFILLER_27_60 VGND VGND VPWR VPWR sky130_fd_sc_hd__decap_4
X_604_ _269_ _276_ VGND VGND VPWR VPWR _278_ sky130_fd_sc_hd__nand2_1
X_535_ A_ff\[3\] _115_ VGND VGND VPWR VPWR _213_ sky130_fd_sc_hd__nand2_1
Xclkbuf_2_0__f_clk clknet_0_clk VGND VGND VPWR VPWR clknet_2_0__leaf_clk sky130_fd_sc_hd__clkbuf_16
X_397_ _074_ _077_ VGND VGND VPWR VPWR _080_ sky130_fd_sc_hd__xnor2_1
X_466_ _108_ _145_ VGND VGND VPWR VPWR _147_ sky130_fd_sc_hd__xnor2_1
XFILLER_4_53 VGND VGND VPWR VPWR sky130_fd_sc_hd__fill_2
XFILLER_29_9 VGND VGND VPWR VPWR sky130_fd_sc_hd__decap_4
X_320_ B_ff\[0\] A_ff\[1\] VGND VGND VPWR VPWR _288_ sky130_fd_sc_hd__nand2_1
XTAP_TAPCELL_ROW_0_65 VGND VPWR sky130_fd_sc_hd__tapvpwrvgnd_1
XFILLER_18_29 VGND VGND VPWR VPWR sky130_fd_sc_hd__decap_3
X_518_ _196_ VGND VGND VPWR VPWR _197_ sky130_fd_sc_hd__inv_2
X_449_ _305_ _311_ A_ff\[4\] VGND VGND VPWR VPWR _130_ sky130_fd_sc_hd__mux2_1
XFILLER_27_6 VGND VGND VPWR VPWR sky130_fd_sc_hd__decap_4
XFILLER_1_54 VGND VGND VPWR VPWR sky130_fd_sc_hd__fill_2